     240

  C         0.6338365484       -0.3198823876        3.3890854600
  C         1.2696756865        0.8952031426        3.0518068340
  C         2.4905738189        0.5911065052        2.3623677672
  C        13.4370338045       -0.4093287718        3.3927086446
  C        13.6641136985        0.2911534467       10.6492656716
  C         0.7987391673        0.3663918225       10.6579742588
  C         3.5137532926        0.8834980855        0.1188727845
  C         3.6302590758       13.7344083241       -0.0526184174
  C        10.8786470052       13.3864092161       -0.3053340540
  C        10.7296257971        0.5189793572       -0.2079001251
  C        -0.1387663108        3.3193844114        0.9624425573
  C        -0.1570841178        3.5122459708       13.8115820698
  C         0.2171571382       10.9660946992       13.1441969929
  C         0.2467528529       10.7068503809        0.2720792834
  C         0.6970451663        6.6427873428       10.6793624171
  C        13.5605025360        6.6692862324       10.6416589367
  C        13.5325411073        7.4569838566        3.5930869851
  C         0.6807243351        7.4610446481        3.6241632873
  C         3.5045568425        7.7885951877        7.2068127320
  C         3.5099265024        6.3763091327        7.0210139653
  C        10.7617029428        6.3889647240        6.9842323582
  C        10.7583816901        7.7596973102        7.1574496353
  C        -0.0211451637       10.4834966290        8.2379879697
  C        -0.0379075464       10.5862399880        6.8006468905
  C        -0.0489814692        3.6538245741        6.0343031872
  C         0.0194894920        3.4636767480        7.4696726712
  C         8.7399007776       -0.1414445524       10.3543632083
  C         7.3829695393       -0.5102378065       10.7495430372
  C         5.4619024438       -0.1093899165        3.9588288431
  C         6.7721881434        0.2622065528        3.5769461693
  C        10.2017319319        1.4141845209        6.3129284120
  C        10.4883651209       14.2938344724        6.2005042137
  C         4.0045033316       12.6314948836        7.9248811454
  C         3.6620006228       -0.2594361628        8.1086541235
  C         6.5046793042        3.2881954637        8.1997906861
  C         6.0728787058        3.3812078460        6.8456128236
  C         7.6836206246       10.7730748068        6.0250420926
  C         8.0632913044       10.6431906826        7.3475158812
  C         7.5126113522        7.0461123688        3.5966159009
  C         6.0880633031        6.9900190728        3.4424245920
  C         6.8161259874        7.1044619129       10.8014742095
  C         8.2098569240        7.1704595658       10.9597965022
  C        10.5395108702        8.0059505036        0.4333600363
  C        10.5883402986        6.6077771066        0.4371266522
  C         3.7936544619        6.1638869186       -0.2760669743
  C         3.5167347374        7.5442770400       -0.3014483381
  C         6.7355534274       10.5821597600        0.7671616175
  C         6.9874707890       10.5769057582       13.6477596617
  C         7.4415503449        3.6787007933       13.5821379056
  C         7.3412502285        3.5746956520        0.7157823637
  C        12.8190296851       12.6878011613        2.8242299882
  C        12.9158555030        1.3752838044       11.2315207466
  C         1.5920191832       13.4158337794       11.0506691593
  C         2.9862796089        1.4285460867        1.3084125211
  C         3.1514455628       13.0983607270       12.9464502308
  C        11.3206411681       12.5378146966        0.8028400477
  C        11.1132159279        1.3953824153       12.9873269698
  C         1.0347850615        2.8475430491        1.6204293924
  C        12.9900914347        3.1131622187       12.9972573618
  C         1.3677143166       11.4310957437       12.4935303538
  C        13.2449038482       10.9860698413        1.0363559223
  C        13.0251708443       13.2877747116       10.9786702666
  C         1.4269347618        1.5033731596       11.2637186006
  C         1.4563258012       12.8566711031        2.8647544319
  C        12.6481967070        0.8063304967        2.9959670881
  C        11.3566439481       12.7625046671       12.7575322979
  C        11.0770494878        1.1550769166        1.0853023595
  C         3.0310697918        1.6578654403       13.2536340490
  C         3.2235455385       12.8608913265        1.0461463460
  C        13.2667424700       11.3067564093       12.3507026851
  C         1.3443361739       11.1210023347        1.0800125940
  C        12.8954001928        2.8344800554        1.6033250806
  C         1.0589993836        3.1556367867       13.0608655201
  C         1.4057044256        7.8982527412       10.3224253973
  C        12.8213651523        5.5442340748       10.0704324321
  C        12.7878490321        8.6515304681        4.2391179744
  C         1.4322768021        6.3049972847        3.9463157661
  C         2.9977809649        8.3730666359        8.4515267156
  C         2.9458034163        5.8079872805        5.8003829183
  C        11.2752097727        5.5239557290        8.1269345704
  C        11.1554184422        8.6745481448        6.0734608130
  C         1.2149320759        9.9503940986        8.9301584235
  C        13.1116295124       10.2746236749        5.9985042244
  C         1.1447102544        4.2776632375        5.4035382109
  C        13.0932213872        3.8613247004        8.2096331442
  C        12.8382938000        6.2474922593        4.0121817182
  C         1.4587949930        8.5509269734        4.2218898528
  C         1.3729748037        5.5148854929       10.1039404133
  C        12.8268297683        7.8864758737       10.2476784827
  C        11.1776742488        5.7507150053        5.7221042710
  C        11.2424178666        8.3497226361        8.4121525761
  C         3.0695515433        8.6152801104        6.1093109160
  C         3.0602577514        5.4793576556        8.1355395600
  C        13.0385286396        4.1348585167        5.2892551978
  C         1.1856302866        3.8045059068        8.2345516975
  C        13.0714502265        9.9699934149        8.9751357331
  C         1.2017869208       10.2364441949        6.0911227471
  C         9.0245729131        1.1759645510        9.7917950422
  C         6.8722736586       12.4347003036       10.3003997790
  C         4.6799726791        0.8478880222        4.7083689657
  C         7.8475616352       13.4970192917        3.7492097239
  C         9.9563460443        1.9013271429        7.6494779741
  C         9.8945460184       13.6010361787        5.1211704030
  C         4.8950584890       11.9569693700        8.8561889604
  C         3.6422427808        0.6202768492        6.9482828390
  C         7.9305359260        3.0181914499        8.4830267327
  C         4.8178348010        2.6974260295        6.4103003148
  C         8.4556088443       11.5706002580        5.1097562664
  C         7.0263213628       10.8009695014        8.3753125984
  C         5.2198582592       12.7813748302        4.4090585499
  C         7.2547389290        1.5572140399        4.0364929173
  C         9.5738710792       13.1021855814        9.6488978207
  C         6.3672940684        0.4365275914       10.5789944409
  C         4.2724960409       12.1774010527        6.5925261744
  C         4.2718436157        0.4595742621        9.2138863512
  C         9.2735322231        2.1146009884        5.3583258325
  C        10.5286895358       13.3694779452        7.3349263598
  C         6.2240685006       10.9906165123        5.6324985463
  C         9.2787432530       11.3999870105        7.8182858378
  C         5.7521178809        2.4529724563        9.1988407663
  C         7.0718160289        3.2737844499        5.8156915749
  C         8.1743299896        8.2944791457        3.2898938266
  C         5.4624773384        5.7447750102        3.0005873762
  C         6.0056999221        8.2376844763       11.2163890278
  C         8.9704543541        6.0390644681       11.4195707776
  C         9.9304165551        8.6920296124        1.5603858288
  C        10.3785012704        5.8584200323       13.4274076075
  C         4.1479641198        5.4396210793        0.9023803314
  C         4.0884244783        8.3373998779       12.8458876630
  C         7.9132847586       10.1966720361        1.6253956862
  C         5.9256784319       10.0882426319       12.8435808319
  C         8.6963200757        4.2295371665       12.9930147358
  C         6.0426204773        4.0144472486        1.3378567704
  C         6.1345065343        5.8754064816       11.2047402300
  C         8.8277758079        8.4274722426       11.4472125908
  C         8.3065303866        5.9013585763        3.2219793163
  C         5.3346978261        8.0623298880        2.9223412271
  C         4.3524436676        5.5465214371       12.8498781243
  C         3.8513194559        8.2285234100        0.8969531253
  C        10.0922424905        8.7243688352       13.4948878762
  C        10.1851204255        5.7766355256        1.5633294918
  C         6.3147196191        4.0131700508       12.7434373353
  C         8.3949349826        4.0408997756        1.6026390802
  C         5.5495872511       10.0124400941        1.3547556479
  C         8.3160195501       10.2652382016       13.0484209561
  C        11.6511875741       13.1553921870        2.0479053021
  C        11.6183295782        0.8084444504       11.7977222300
  C         2.6944935604       13.8837588957       11.8808887125
  C         2.2076867605        2.5610742109        0.9034767883
  C         2.4654115320       11.8579146676       13.2601906641
  C        12.1054587811       11.4717182504        0.3289993583
  C        11.8465757881        2.5102686926       13.5958013388
  C         0.5394469850        2.0571070488        2.7003431012
  C        13.5054308670        2.5101890505       11.7959803137
  C         0.9549460552       12.1977576339       11.3330132842
  C        13.6307849776       11.6671031958        2.3102126871
  C        11.7712902322       13.6383466935       11.7001810438
  C         2.5373452202        1.0328439282       12.0466658834
  C         2.6509769975       13.4240104553        2.2036188676
  C        11.4972686752        0.3106123619        2.1342708346
  C        12.1415511866       11.6334988482       13.0526286426
  C        11.8150283750        2.3973556003        0.7966098827
  C         2.2654174588        2.8040786582       13.6927800715
  C         2.4761612832       11.6873117057        0.4504657662
  C        13.7718847817       12.1880499253       11.3440009118
  C         0.8450105691       11.7389408739        2.3026881578
  C        13.3292097953        1.9762446668        2.6711441656
  C         0.6571059377        2.5294971497       11.8561745308
  C         2.5281125268        7.5349260554        9.4964793963
  C        11.6937184020        6.1076027966        9.3321795349
  C        11.6231521716        8.1170746330        4.8901527675
  C         2.4830645690        6.6734934207        4.8086301667
  C         2.3626554462        9.6867978431        8.1758303380
  C         2.2271257965        4.6532542329        6.1525605673
  C        11.9860711347        4.4238150723        7.5265456593
  C        11.9498490488        9.7783200102        6.6917039205
  C         0.7129111195        9.0627188363        9.9521111019
  C        13.5700423289        9.6651917566        4.7946860219
  C         0.7264322676        5.1191985034        4.2277266196
  C        13.5488366941        4.4945681979        9.4653309973
  C        11.6656743737        6.6080792636        4.7414988023
  C         2.6335331484        7.9973902878        4.9288448181
  C         2.5519240230        6.0582202539        9.3073414951
  C        11.6740337468        7.5898370096        9.4848464028
  C        11.9419601318        4.5798544960        6.0584209174
  C        12.0235548899        9.5946927011        8.1206471608
  C         2.3494597012        9.7749139767        6.7410073483
  C         2.3083722772        4.3728596309        7.5738520751
  C        13.5116135537        5.0295640072        4.2006239824
  C         0.7138643785        4.4314641605        9.5460045508
  C        13.4922551601        9.0558224125       10.0216526627
  C         0.7692397537        9.5856370118        4.8550818011
  C         9.9593797032        0.9550022340        8.7530842158
  C         5.4814690251       12.6514135471        9.9053005738
  C         3.9033852340        0.1009432351        5.6092511235
  C         9.0581661864       14.2378479230        4.1986160892
  C         8.8473636112        2.8734937100        7.4810998306
  C         9.6346577401       12.2005112929        5.5203390517
  C         5.6926624788       11.0199388247        8.0491875577
  C         4.1810156813        1.8941372945        7.3250317959
  C         7.9910037168        2.1671493798        9.6925347370
  C         5.1506231756        2.1361851922        5.1155758677
  C         7.5588000315       12.1473554829        4.1398020256
  C         7.6541755918       11.5728887742        9.4771823566
  C         4.1860362736       12.9469542379        5.4702519514
  C         8.7166905665        1.3978554248        4.3014913992
  C        10.3381945111       13.8034068185        8.6550166646
  C         5.1420649324       -0.1956142243       10.0947518730
  C         5.2629328010       11.1153576756        6.6776226924
  C         4.6380384290        1.7589231485        8.7323631014
  C         8.4414115732        2.9542187861        6.1724817330
  C        10.0517616122       12.1157766981        6.9128724276
  C         6.1968203380       11.8294036414        4.5119931834
  C         8.9645838560       11.9380567100        9.1323142787
  C         6.6596617478        1.7782908194       10.1846549645
  C         6.4893141102        2.5004787250        4.7503771763
  C         9.4179981478        7.9330894060        2.6463427667
  C         4.3718384114        6.1130361569        2.1343230843
  C         4.7633998803        7.6881790341       11.7773615418
  C        10.0604003007        6.5826628174       12.2530153115
  C         9.1818269023        9.8188161247        1.0958523757
  C         9.6306133712        4.6676632779       13.8129716464
  C         4.9209010912        4.3131707705        0.5365818421
  C         4.7233797090        9.5350022052       13.4473246809
  C         7.4002998992        9.3773069874        2.7361313862
  C         6.5683585656        9.4013668328       11.6771516891
  C         8.3303157774        4.8557954139       11.7062692582
  C         6.2908795852        4.6889277523        2.5581896696
  C         4.8473357979        6.2744112402       11.7871232652
  C         9.8787589471        8.0656891538       12.2978634849
  C         9.5666018938        6.4614245854        2.6543685823
  C         4.2354556619        7.5805368956        2.0681396780
  C         5.0709833033        4.3438316379       13.3642903422
  C         4.5769547100        9.4750769008        0.5550320298
  C         9.2962758912        9.8929247811       13.9148922132
  C         9.5623268124        4.5700305832        1.0431660142
  C         6.8719544532        4.7671400469       11.6165407985
  C         7.7147457690        4.7313631264        2.6806814606
  C         5.9237271770        9.2925086965        2.6031042287
  C         8.0134276954        9.5194620739       11.8258517620
