     240

  C         0.5328410620       -0.4189110832        3.3821987654
  C         1.2329350054        0.7388556220        3.0698295596
  C         2.5230642808        0.4426319284        2.3587579854
  C        13.3961384265       -0.4469450405        3.3354143639
  C        13.6182289923        0.3239809962       10.7629511716
  C         0.7220253618        0.3840803401       10.7747726913
  C         3.3347457651        0.6813399502        0.1639665369
  C         3.5090537876       13.5118092896        0.0176328728
  C        10.8148525412       13.4982110449       -0.2257576182
  C        10.6954325506        0.6178173904       -0.0688463194
  C        -0.1588776102        3.2727656134        1.0775796355
  C        -0.1286571820        3.4209001007       13.9269904451
  C         0.0323014041       10.8256674268       13.1564829252
  C        -0.0018759347       10.6726228997        0.2952797198
  C         0.6960989096        6.5365772233       10.7120511866
  C        13.5780387107        6.6036566913       10.7128379048
  C        13.2186450935        7.6137018836        3.7562783169
  C         0.3814844244        7.6111443989        3.8048933222
  C         3.3156374102        7.5722799965        7.1029468652
  C         3.3208295393        6.1946542434        6.9487674015
  C        10.5943576893        6.5947019547        7.3293517572
  C        10.6445845599        7.9968538704        7.5473259584
  C         0.0902940389       10.4437643928        8.3872991920
  C         0.0566967720       10.6708945690        7.0530679590
  C        -0.3596239732        3.7473683905        6.0521028456
  C        -0.2800320468        3.4551919346        7.4036963728
  C         8.7995197191       -0.1186577763       10.3123271899
  C         7.4545289692       -0.5201384157       10.7103509490
  C         5.4771278404       -0.0004835059        3.9711935972
  C         6.7909703203        0.4261960235        3.5819953378
  C        10.1697936372        1.6133764043        6.3219694099
  C        10.6148426837       14.5270868384        6.1564094369
  C         3.9959765551       12.5384314672        7.9695678660
  C         3.7575065289       -0.3589583203        8.1709140096
  C         6.4622813400        3.2749055858        8.3636759588
  C         6.0689462742        3.3623288128        6.9734000782
  C         7.8078210153       10.8940071064        5.9093881867
  C         8.1832437961       10.8285487898        7.2941839229
  C         7.3339531057        7.2957264201        3.5246202235
  C         5.8996257748        7.1805014175        3.4474290134
  C         6.7299401418        6.6182578398       10.8299752202
  C         8.0989736980        6.7199846839       10.9732681665
  C        10.4173122762        7.9549484234        0.3553651139
  C        10.4271414411        6.5602341600        0.5250538460
  C         3.6414586491        5.9205397532       -0.2349913561
  C         3.5056749440        7.3207932201       -0.3387706200
  C         6.5765158085       10.4806294110        0.4540447713
  C         6.7953326338       10.3539347761       13.3568832032
  C         7.3387332286        3.4514748175       13.9635051142
  C         7.1617618129        3.5050389414        1.0787925941
  C        12.6489701522       12.6249037918        2.7969251355
  C        12.8264232442        1.4483581171       11.2434017783
  C         1.4622516919       13.4622638147       11.0987328764
  C         2.9544879570        1.2643379205        1.3355781088
  C         3.0527251485       12.9548245312       12.9677441193
  C        11.1682375421       12.6371263097        0.8492901346
  C        11.1579067481        1.4842494564       13.0808705770
  C         1.0313479373        2.8220838211        1.6748666537
  C        13.0349261403        3.0755251802       13.0818832945
  C         1.1976466659       11.4210404066       12.5457727186
  C        13.0330745956       11.0130626671        1.0260782533
  C        12.9531166118       13.3511621902       11.0560507387
  C         1.4338310031        1.5602191994       11.3496677435
  C         1.3327040068       12.7169341712        2.8800213873
  C        12.6532328736        0.7170504052        3.0462517584
  C        11.2066524936       12.8571760059       12.7336497210
  C        11.1206220921        1.2029074027        1.1581435927
  C         2.9820646526        1.5053229440       13.2823933452
  C         3.0026064666       12.6559029571        1.0755677520
  C        13.1160554680       11.2752660541       12.4230998084
  C         1.1882635837       11.0052777866        1.0757164092
  C        12.8558978651        2.7950578567        1.7106846871
  C         1.0725065759        3.1140189501       13.1374124133
  C         1.4696140726        7.7078427316       10.3082062032
  C        12.7365285650        5.5141777747       10.0886321764
  C        12.5614192083        8.7658962525        4.4013079094
  C         1.0840176844        6.3601706386        4.1154455004
  C         3.0170995741        8.1850592038        8.4158612364
  C         2.8400112879        5.6420509069        5.6704474873
  C        11.0692173787        5.6698196450        8.2986957205
  C        11.1203082787        8.8486822445        6.4380180924
  C         1.2608062693        9.8131538432        9.0298010838
  C        13.0956790321       10.3524254715        6.2950608962
  C         0.8067972084        4.1911720301        5.3573516361
  C        12.8592837350        3.8519458821        8.2085100311
  C        12.4489924567        6.4096111581        4.1288338909
  C         1.2169091825        8.6557604912        4.3561467106
  C         1.3347670082        5.3775646353       10.0447603034
  C        12.8818237207        7.8348486500       10.4136885244
  C        10.9650177613        6.1246656667        6.0543061327
  C        11.2471285065        8.5341825008        8.7730484086
  C         2.9562800657        8.5233160318        6.1012176408
  C         2.8631584450        5.3718090516        8.0318030307
  C        12.7178617644        4.3738295970        5.3985005273
  C         0.9696374742        3.8405954662        8.1045488392
  C        13.1741166735        9.8974785611        9.1342282320
  C         1.1856561946       10.2392770894        6.2387962463
  C         9.0568389791        1.2658277155        9.8673465597
  C         6.9793605313       12.4245684412       10.2826117303
  C         4.6540232374        0.8947537142        4.7628737980
  C         7.8547048929       13.6946868991        3.6953209779
  C         9.9075576898        2.0332612088        7.6664336770
  C         9.9819540363       13.7827955690        5.0402690223
  C         4.9912029846       11.8732043859        8.8452891437
  C         3.6281405547        0.6147790544        7.0138682090
  C         7.8384472381        3.1094579720        8.6789294120
  C         4.9010642830        2.6489472111        6.5578257716
  C         8.5124428511       11.7239396047        5.0141785032
  C         7.2141709975       10.8097867288        8.4056860949
  C         5.2407858626       12.9012854276        4.4345203604
  C         7.2719500789        1.7374010161        4.0079838078
  C         9.5947619177       13.2127622386        9.5478227744
  C         6.3829042648        0.4146989897       10.5411881617
  C         4.3650965572       12.1159032835        6.6036898694
  C         4.3167797715        0.3482469950        9.2277397115
  C         9.2405092393        2.2901434227        5.4434196552
  C        10.6511893273       13.6164880860        7.2880916956
  C         6.3756539513       11.0401383466        5.5745382680
  C         9.3591708558       11.5388211702        7.7587978834
  C         5.7049662500        2.4691516951        9.2572870712
  C         7.0423608475        3.3734982049        5.9183875486
  C         8.0561055360        8.5194417764        3.0927358197
  C         5.3017599757        5.8664388676        3.0009783894
  C         5.8111509283        7.7636250652       11.0839883826
  C         8.8773663360        5.7468541914       11.6116545733
  C         9.7232075879        8.7025936666        1.4272789735
  C        10.2386157035        5.7011688891       13.6725208782
  C         3.9305133484        5.3071109488        1.0357777775
  C         3.9653227068        8.0365000729       12.7014647976
  C         7.7039308494       10.1411300016        1.2966052455
  C         5.6584225888        9.8248221920       12.5368159537
  C         8.5631467405        3.9423186741       13.3083153706
  C         5.8803591255        3.8334981682        1.5876662236
  C         6.0423077682        5.4405079271       11.2969437099
  C         8.6715623395        8.0541987860       11.4071022256
  C         8.2068142862        6.2067716048        3.3191788847
  C         5.1295352498        8.2524785845        2.8490041417
  C         4.2636568698        5.1846248933       12.9763476631
  C         3.7127080235        8.1155603364        0.7496306079
  C        10.1011396401        8.6232436724       13.3523106861
  C         9.9963763275        5.8695951264        1.6984612102
  C         6.2546716993        3.7352269278       13.0767180761
  C         8.3128604206        4.1052233598        1.8961724189
  C         5.3264194859       10.0389457969        1.1265897794
  C         8.0655549972       10.0338788101       12.7730701590
  C        11.5584913265       13.2074127952        2.0768745218
  C        11.6498737698        0.9049032828       11.8573830065
  C         2.5852913446       13.8033183708       11.9580221717
  C         2.1898016099        2.4558932274        1.0096420207
  C         2.3212660954       11.7545633342       13.3430294401
  C        11.9014882978       11.5212209949        0.3171818510
  C        11.8515913487        2.5594058123       13.6569695972
  C         0.5710623888        1.9535721992        2.8382419665
  C        13.5160468327        2.5302252164       11.7815815160
  C         0.8058250250       12.2380333557       11.4001811785
  C        13.4161054702       11.5985741705        2.2493082338
  C        11.7386840863       13.6630417069       11.7168867586
  C         2.6435043159        1.0541353217       12.0209870296
  C         2.4893404520       13.2609429504        2.2170520197
  C        11.4939136994        0.3851739980        2.2754417366
  C        11.9650336180       11.6195399812       13.1394373583
  C        11.8078934829        2.3911811984        0.8513989892
  C         2.2045593486        2.7049385595       13.8526814467
  C         2.3296559476       11.5538691946        0.4705677366
  C        13.5811380015       12.1769186988       11.4057294354
  C         0.6248072744       11.6334876709        2.2865176311
  C        13.3315114391        1.9527992623        2.8021933166
  C         0.7494447285        2.6191817455       11.8189451074
  C         2.5303767883        7.3018033884        9.3930493988
  C        11.5666802071        6.1284224268        9.5316906446
  C        11.4319318444        8.2896193865        5.1260582376
  C         2.3734684087        6.6276577532        4.7274530161
  C         2.3492242538        9.4695805671        8.2218167620
  C         2.0289317636        4.5006939624        6.0392952696
  C        11.7207457173        4.5201277367        7.6449425127
  C        11.9834999835        9.8653253134        7.0054797780
  C         0.8300159870        8.9381153609       10.0567497842
  C        13.3588464428        9.8373616017        4.9772835367
  C         0.3143729256        5.2061677745        4.3294749383
  C        13.3497095074        4.4398074836        9.4272264094
  C        11.3720557333        6.8865292457        5.0156506373
  C         2.3931371650        8.0513750734        4.9224539688
  C         2.4292056131        5.9007685820        9.2458431301
  C        11.6245093890        7.6114984935        9.7745873547
  C        11.6399194025        4.7352309248        6.2051939027
  C        12.0366692819        9.6750693977        8.4050201136
  C         2.3557170054        9.6681121642        6.7351809856
  C         2.1094270140        4.3074066471        7.4884648615
  C        13.1625944331        5.2515368444        4.3435233478
  C         0.5710570907        4.4102890181        9.4102516286
  C        13.6298798263        8.9737496431       10.1117000633
  C         0.6178540393        9.7455945524        4.9606527640
  C        10.0221263481        1.1726976322        8.7785462799
  C         5.5908891784       12.5626277037        9.8774863003
  C         3.8969869130        0.0974629752        5.7356380911
  C         9.0663194013       14.4228769351        4.1741351821
  C         8.7913350885        3.0587128722        7.6645336819
  C         9.7017813284       12.3784466051        5.4285558388
  C         5.8496338812       10.9468417656        7.9906986589
  C         4.1552800065        1.8745036796        7.4252394299
  C         8.0028289255        2.1749223895        9.7828229887
  C         5.0823311450        2.1767710580        5.1665387957
  C         7.5993332031       12.3839506932        4.1133288316
  C         7.8063331394       11.5546668834        9.5241355912
  C         4.2764247161       12.9806242342        5.4899044320
  C         8.6848710513        1.5813656097        4.3286318865
  C        10.3330076149       14.0504816590        8.5856701056
  C         5.1862462199       -0.2814796457       10.0981287659
  C         5.4399745365       11.1642522334        6.5986118808
  C         4.5335756780        1.7759769619        8.8317155701
  C         8.3847849332        3.1223500280        6.2879281685
  C        10.1162293528       12.3554682407        6.8870879736
  C         6.2511625261       11.9616394477        4.4416728012
  C         9.1111145266       11.9804038133        9.1577839883
  C         6.6350152604        1.7750821272       10.1741911576
  C         6.4792077998        2.6268052430        4.7691425960
  C         9.3148300907        8.1198662941        2.5869375789
  C         4.2161234920        6.1413601977        2.1112645587
  C         4.6393575396        7.2674821252       11.6923912616
  C         9.8413151537        6.3163252750       12.4643063867
  C         8.9724517698        9.8002452854        0.7988859736
  C         9.5292868517        4.4980924691       14.1109566339
  C         4.8522042607        4.1525102232        0.7035655840
  C         4.5139994778        9.3390774786       13.1459040912
  C         7.2542816227        9.4870894065        2.4906585425
  C         6.3709870989        9.0304057891       11.4604786265
  C         8.2539135636        4.5215314349       12.0448608772
  C         6.1605777467        4.7900342134        2.6934853736
  C         4.7324871569        5.8019149436       11.8227724224
  C         9.7872454293        7.7704945070       12.2893536160
  C         9.4498980108        6.6466945784        2.7533824013
  C         4.0481136004        7.5703704885        1.9807255912
  C         5.0333723313        4.1101415979       13.5639559943
  C         4.3114228301        9.4200823740        0.3577983960
  C         9.1356925217        9.7494903326       13.6456990251
  C         9.4633887097        4.5303090544        1.3238696515
  C         6.7792481511        4.4097731662       11.8621725788
  C         7.6205662639        4.9132171912        2.9439615206
  C         5.8230304827        9.3500355137        2.3252784517
  C         7.8246250688        9.0637991565       11.6363855279
