240

C       3.19464 9.15506 3.29055
C       3.98861 10.2745 3.44664
C       9.07874 10.2972 7.98548
C       3.71534 11.4566 2.66466
C       1.30758 10.7409 8.2414
C       4.67501 10.6556 4.75009
C       3.49964 12.1551 7.06612
C       3.11435 8.92885 5.74846
C       8.84914 9.18097 7.16587
C       2.14713 8.90231 6.84093
C       9.07875 12.6291 7.98251
C       3.94089 10.0202 5.88578
C       2.38773 10.0504 7.67086
C       7.83509 8.92685 3.76766
C       7.00821 10.0174 3.62734
C       2.38771 12.8752 7.66718
C       8.80199 8.89716 2.67513
C       6.27393 10.6555 4.76126
C       1.30758 12.1861 8.23957
C       3.49965 10.7689 7.06794
C       2.84352 8.22121 4.45156
C       1.35276 8.01928 4.24436
C       7.75395 9.15803 6.22493
C       8.84924 13.7431 7.15985
C       8.10537 8.2215 5.06589
C       0.845049 8.47158 6.59991
C       0.468164 8.02028 5.27403
C       0.844973 14.4511 6.59193
C       2.70363 11.4552 1.68808
C       6.96025 10.2774 6.06578
C       3.19241 1.25464 3.28028
C       7.75602 5.85853 6.22994
C       7.75436 13.763 6.2187
C       2.39691 2.37378 3.43727
C       8.55143 4.73932 6.07295
C       6.96038 12.6436 6.06259
C       6.42501 2.38818 7.98474
C       4.52333 4.72488 1.52544
C       1.87028 12.6209 1.52376
C       2.67408 3.55823 2.65937
C       8.27423 3.55485 6.85082
C       7.23367 11.4615 6.84457
C       5.06755 2.83094 8.23973
C       5.88079 4.28213 1.27043
C       0.513434 12.1772 1.26787
C       1.70958 2.75317 4.74253
C       0.110766 4.35991 4.76771
C       6.27399 12.2626 4.75912
C       2.87884 4.24764 7.06315
C       8.06953 2.86545 2.44702
C       7.4494 10.763 2.44317
C       3.26967 1.02601 5.73768
C       7.67863 6.08695 3.77253
C       7.83451 13.9894 3.76077
C       6.65755 1.27366 7.16358
C       4.29082 5.83938 2.34661
C       2.09984 13.7372 2.34338
C       4.23259 0.995503 6.83322
C       6.71577 6.11752 2.67696
C       8.80181 14.0159 2.6683
C       6.42503 4.71953 7.98688
C       4.52331 2.39357 1.52329
C       1.87027 10.289 1.52673
C       2.44322 2.11653 5.87587
C       8.50512 4.99649 3.63433
C       7.0081 12.898 3.62346
C       3.98884 2.14117 7.6659
C       6.95951 4.97188 1.84426
C       8.56128 12.8677 1.83841
C       7.67852 1.02798 3.76784
C       3.26979 6.08523 5.74236
C       3.11378 13.9911 5.74157
C       8.50513 2.11859 3.63168
C       2.44322 4.99455 5.87853
C       3.94078 12.9006 5.8819
C       3.98881 4.96696 7.66854
C       6.95954 2.14614 1.84162
C       8.5613 10.0429 1.84208
C       6.71574 0.999031 2.67228
C       4.23262 6.11411 6.8379
C       2.14695 14.0209 6.83411
C       0.11069 2.75327 4.76624
C       1.70966 4.35982 4.74399
C       4.67508 12.2626 4.74795
C       5.06755 4.27625 8.24108
C       5.88079 2.83684 1.26909
C       0.51343 10.732 1.2697
C       2.87886 2.86145 7.06182
C       8.0695 4.25162 2.44835
C       7.4494 12.1492 2.44134
C       3.54212 0.319163 4.44128
C       7.40636 6.79398 5.06883
C       8.10528 14.697 5.05782
C       5.03304 0.117621 4.2359
C       5.91542 6.99558 5.2743
C       0.468085 14.8989 5.26492
C       7.75583 1.25234 6.22564
C       3.19259 5.86064 3.28458
C       3.19505 13.7602 3.28433
C       6.65764 5.83555 7.16778
C       4.29074 1.27758 2.34241
C       2.09975 9.17503 2.3494
C       7.40609 0.319057 5.06273
C       3.54238 6.79396 4.44737
C       2.84343 14.6965 4.44349
C       5.53502 0.565312 6.59386
C       5.41336 6.54771 2.91633
C       0.975899 14.4466 2.90932
C       5.91524 0.116862 5.2681
C       5.03322 6.9961 4.24209
C       1.35269 14.8978 4.23525
C       5.53506 6.54483 6.59926
C       5.41332 0.568316 2.91093
C       0.975975 8.46704 2.9173
C       3.6896 3.55908 1.68607
C       7.25871 3.554 7.82412
C       8.24539 11.4629 7.82114
C       8.55133 2.37175 6.07079
C       2.39702 4.74132 3.43943
C       3.98874 12.6408 3.44345
C 12.3226 9.15506 3.29055
C 13.1166 10.2745 3.44664
C 18.2067 10.2972 7.98548
C 12.8433 11.4566 2.66466
C 10.4356 10.7409 8.2414
C 13.803 10.6556 4.75009
C 12.6276 12.1551 7.06612
C 12.2424 8.92885 5.74846
C 17.9771 9.18097 7.16587
C 11.2751 8.90231 6.84093
C 18.2067 12.6291 7.98251
C 13.0689 10.0202 5.88578
C 11.5157 10.0504 7.67086
C 16.9631 8.92685 3.76766
C 16.1362 10.0174 3.62734
C 11.5157 12.8752 7.66718
C 17.93 8.89716 2.67513
C 15.4019 10.6555 4.76126
C 10.4356 12.1861 8.23957
C 12.6276 10.7689 7.06794
C 11.9715 8.22121 4.45156
C 10.4808 8.01928 4.24436
C 16.8819 9.15803 6.22493
C 17.9772 13.7431 7.15985
C 17.2334 8.2215 5.06589
C 9.97305 8.47158 6.59991
C 9.59616 8.02028 5.27403
C 9.97297 14.4511 6.59193
C 11.8316 11.4552 1.68808
C 16.0883 10.2774 6.06578
C 12.3204 1.25464 3.28028
C 16.884 5.85853 6.22994
C 16.8824 13.763 6.2187
C 11.5249 2.37378 3.43727
C 17.6794 4.73932 6.07295
C 16.0884 12.6436 6.06259
C 15.553 2.38818 7.98474
C 13.6513 4.72488 1.52544
C 10.9983 12.6209 1.52376
C 11.8021 3.55823 2.65937
C 17.4022 3.55485 6.85082
C 16.3617 11.4615 6.84457
C 14.1956 2.83094 8.23973
C 15.0088 4.28213 1.27043
C 9.64143 12.1772 1.26787
C 10.8376 2.75317 4.74253
C 9.23877 4.35991 4.76771
C 15.402 12.2626 4.75912
C 12.0068 4.24764 7.06315
C 17.1975 2.86545 2.44702
C 16.5774 10.763 2.44317
C 12.3977 1.02601 5.73768
C 16.8066 6.08695 3.77253
C 16.9625 13.9894 3.76077
C 15.7856 1.27366 7.16358
C 13.4188 5.83938 2.34661
C 11.2278 13.7372 2.34338
C 13.3606 0.995503 6.83322
C 15.8438 6.11752 2.67696
C 17.9298 14.0159 2.6683
C 15.553 4.71953 7.98688
C 13.6513 2.39357 1.52329
C 10.9983 10.289 1.52673
C 11.5712 2.11653 5.87587
C 17.6331 4.99649 3.63433
C 16.1361 12.898 3.62346
C 13.1168 2.14117 7.6659
C 16.0875 4.97188 1.84426
C 17.6893 12.8677 1.83841
C 16.8065 1.02798 3.76784
C 12.3978 6.08523 5.74236
C 12.2418 13.9911 5.74157
C 17.6331 2.11859 3.63168
C 11.5712 4.99455 5.87853
C 13.0688 12.9006 5.8819
C 13.1168 4.96696 7.66854
C 16.0875 2.14614 1.84162
C 17.6893 10.0429 1.84208
C 15.8437 0.999031 2.67228
C 13.3606 6.11411 6.8379
C 11.275 14.0209 6.83411
C 9.23869 2.75327 4.76624
C 10.8377 4.35982 4.74399
C 13.8031 12.2626 4.74795
C 14.1956 4.27625 8.24108
C 15.0088 2.83684 1.26909
C 9.64143 10.732 1.2697
C 12.0069 2.86145 7.06182
C 17.1975 4.25162 2.44835
C 16.5774 12.1492 2.44134
C 12.6701 0.319163 4.44128
C 16.5344 6.79398 5.06883
C 17.2333 14.697 5.05782
C 14.161 0.117621 4.2359
C 15.0434 6.99558 5.2743
C 9.59609 14.8989 5.26492
C 16.8838 1.25234 6.22564
C 12.3206 5.86064 3.28458
C 12.3231 13.7602 3.28433
C 15.7856 5.83555 7.16778
C 13.4187 1.27758 2.34241
C 11.2278 9.17503 2.3494
C 16.5341 0.319057 5.06273
C 12.6704 6.79396 4.44737
C 11.9714 14.6965 4.44349
C 14.663 0.565312 6.59386
C 14.5414 6.54771 2.91633
C 10.1039 14.4466 2.90932
C 15.0432 0.116862 5.2681
C 14.1612 6.9961 4.24209
C 10.4807 14.8978 4.23525
C 14.6631 6.54483 6.59926
C 14.5413 0.568316 2.91093
C 10.104 8.46704 2.9173
C 12.8176 3.55908 1.68607
C 16.3867 3.554 7.82412
C 17.3734 11.4629 7.82114
C 17.6793 2.37175 6.07079
C 11.525 4.74132 3.43943
C 13.1167 12.6408 3.44345
